IEEE 13 OCHRE/ieee13ochre_VLN_Node.Txt

LINE-GROUND and LINE-LINE VOLTAGES BY BUS & NODE

Bus         Node    VLN (kV)   Angle      pu     Base kV    Node-Node   VLL (kV)  Angle      pu

SOURCEBUS . 1       66.398 /_    0.0         1   115.000        1-2        115 /_   30.0         1
   -        2       66.394 /_ -120.0   0.99999   115.000        2-3        115 /_  -90.0         1
   -        3       66.395 /_  120.0         1   115.000        3-1        115 /_  150.0         1
ROOTBUS ... 1       66.398 /_    0.0         1   115.000        1-2        115 /_   30.0         1
   -        2       66.394 /_ -120.0   0.99999   115.000        2-3        115 /_  -90.0         1
   -        3       66.395 /_  120.0         1   115.000        3-1        115 /_  150.0         1
NODE_650 .. 1       2.4019 /_    0.0         1     4.160        1-2       4.16 /_   30.0         1
   -        2       2.4017 /_ -120.0   0.99998     4.160        2-3       4.16 /_  -90.0         1
   -        3       2.4018 /_  120.0   0.99999     4.160        3-1       4.16 /_  150.0         1
CAP1 ...... 1        2.446 /_   -0.9    1.0184     4.160        1-2     4.2321 /_   29.4    1.0173
   -        2       2.4517 /_ -120.4    1.0208     4.160        2-3     4.2502 /_  -90.7    1.0217
   -        3       2.4463 /_  119.2    1.0185     4.160        3-1     4.2377 /_  149.2    1.0187
CAP2 ...... 1       2.4461 /_   -0.9    1.0185     4.160        1-2     4.2323 /_   29.4    1.0174
   -        2       2.4518 /_ -120.4    1.0208     4.160        2-3     4.2504 /_  -90.7    1.0217
   -        3       2.4464 /_  119.2    1.0186     4.160        3-1     4.2378 /_  149.2    1.0187
NODE_671 .. 1       2.4418 /_   -0.7    1.0167     4.160        1-2     4.2254 /_   29.5    1.0157
   -        2       2.4474 /_ -120.3     1.019     4.160        2-3     4.2433 /_  -90.6      1.02
   -        3       2.4421 /_  119.3    1.0168     4.160        3-1     4.2294 /_  149.3    1.0167
NODE_692 .. 1       2.4419 /_   -0.7    1.0167     4.160        1-2     4.2256 /_   29.5    1.0158
   -        2       2.4475 /_ -120.3     1.019     4.160        2-3     4.2435 /_  -90.6    1.0201
   -        3       2.4422 /_  119.3    1.0168     4.160        3-1     4.2296 /_  149.3    1.0167
NODE_632 .. 1        2.422 /_   -0.4    1.0084     4.160        1-2     4.1923 /_   29.7    1.0078
   -        2       2.4222 /_ -120.2    1.0085     4.160        2-3     4.1994 /_  -90.4    1.0095
   -        3        2.421 /_  119.5     1.008     4.160        3-1      4.192 /_  149.6    1.0077
NODE_645 .. 2       2.4196 /_ -120.2    1.0074     4.160        2-3     4.1961 /_  -90.4    1.0087
   -        3       2.4193 /_  119.5    1.0073     4.160
NODE_646 .. 2       2.4188 /_ -120.2    1.0071     4.160        2-3     4.1951 /_  -90.4    1.0084
   -        3       2.4188 /_  119.5    1.0071     4.160
NODE_630 .. 1       2.4023 /_    0.0    1.0002     4.160        1-2     4.1607 /_   30.0    1.0002
   -        2       2.4021 /_ -120.0    1.0001     4.160        2-3     4.1607 /_  -90.0    1.0002
   -        3       2.4021 /_  120.0    1.0001     4.160        3-1     4.1606 /_  150.0    1.0002
NODE_6321 . 1        2.427 /_   -0.5    1.0105     4.160        1-2     4.2006 /_   29.7    1.0098
   -        2       2.4285 /_ -120.2    1.0111     4.160        2-3     4.2104 /_  -90.4    1.0121
   -        3       2.4262 /_  119.5    1.0102     4.160        3-1     4.2013 /_  149.5    1.0099
NODE_680 .. 1       2.4418 /_   -0.7    1.0167     4.160        1-2     4.2254 /_   29.5    1.0157
   -        2       2.4474 /_ -120.3     1.019     4.160        2-3     4.2433 /_  -90.6      1.02
   -        3       2.4421 /_  119.3    1.0168     4.160        3-1     4.2294 /_  149.3    1.0167
NODE_684 .. 1       2.4413 /_   -0.7    1.0165     4.160
   -        3       2.4413 /_  119.3    1.0165     4.160        3-1     4.2284 /_  149.3    1.0165
NODE_611 .. 3       2.4406 /_  119.2    1.0162     4.160
NODE_633 .. 1       2.4215 /_   -0.4    1.0082     4.160        1-2     4.1914 /_   29.7    1.0076
   -        2       2.4217 /_ -120.2    1.0083     4.160        2-3     4.1984 /_  -90.4    1.0092
   -        3       2.4203 /_  119.5    1.0077     4.160        3-1      4.191 /_  149.6    1.0075
NODE_652 .. 1       2.4395 /_   -0.8    1.0157     4.160
NODE_675 .. 1        2.446 /_   -0.9    1.0184     4.160        1-2     4.2321 /_   29.4    1.0173
   -        2       2.4517 /_ -120.4    1.0208     4.160        2-3     4.2502 /_  -90.7    1.0217
   -        3       2.4463 /_  119.2    1.0185     4.160        3-1     4.2377 /_  149.2    1.0187
TRIP_NODE1  1      0.12171 /_  119.1    1.0135     0.208        1-2    0.24341 /_  119.1    1.1703
   -        2      0.12171 /_  -60.9    1.0135     0.208
TL_HOUSE_1  1       0.1217 /_  119.1    1.0134     0.208        1-2     0.2434 /_  119.1    1.1702
   -        2       0.1217 /_  -60.9    1.0134     0.208
TRIP_NODE2  1      0.12056 /_   -0.6    1.0039     0.208        1-2    0.24112 /_   -0.6    1.1592
   -        2      0.12056 /_  179.4    1.0039     0.208
TL_HOUSE_2  1      0.12056 /_   -0.6    1.0039     0.208        1-2    0.24111 /_   -0.6    1.1592
   -        2      0.12056 /_  179.4    1.0039     0.208
TRIP_NODE3  1      0.12057 /_ -120.5     1.004     0.208        1-2    0.24114 /_ -120.5    1.1593
   -        2      0.12057 /_   59.5     1.004     0.208
TL_HOUSE_3  1      0.12056 /_ -120.5     1.004     0.208        1-2    0.24113 /_ -120.5    1.1593
   -        2      0.12056 /_   59.5     1.004     0.208
TRIP_NODE4  1       0.1205 /_  119.3    1.0034     0.208        1-2    0.24101 /_  119.3    1.1587
   -        2       0.1205 /_  -60.7    1.0034     0.208
TL_HOUSE_4  1       0.1205 /_  119.3    1.0034     0.208        1-2      0.241 /_  119.3    1.1586
   -        2       0.1205 /_  -60.7    1.0034     0.208
TRIP_NODE5  1      0.12066 /_ -120.4    1.0047     0.208        1-2    0.24132 /_ -120.4    1.1602
   -        2      0.12066 /_   59.6    1.0047     0.208
TL_HOUSE_5  1      0.12065 /_ -120.4    1.0047     0.208        1-2    0.24131 /_ -120.4    1.1601
   -        2      0.12065 /_   59.6    1.0047     0.208
TRIP_NODE6  1      0.12064 /_  119.3    1.0046     0.208        1-2    0.24129 /_  119.3      1.16
   -        2      0.12064 /_  -60.7    1.0046     0.208
TL_HOUSE_6  1      0.12064 /_  119.3    1.0046     0.208        1-2    0.24128 /_  119.3      1.16
   -        2      0.12064 /_  -60.7    1.0046     0.208
TRIP_NODE7  1      0.12062 /_ -120.4    1.0044     0.208        1-2    0.24124 /_ -120.4    1.1598
   -        2      0.12062 /_   59.6    1.0044     0.208
TL_HOUSE_7  1      0.12061 /_ -120.4    1.0044     0.208        1-2    0.24123 /_ -120.4    1.1598
   -        2      0.12061 /_   59.6    1.0044     0.208
TRIP_NODE8  1      0.12062 /_  119.3    1.0044     0.208        1-2    0.24124 /_  119.3    1.1598
   -        2      0.12062 /_  -60.7    1.0044     0.208
TL_HOUSE_8  1      0.12061 /_  119.3    1.0044     0.208        1-2    0.24123 /_  119.3    1.1598
   -        2      0.12061 /_  -60.7    1.0044     0.208
TRIP_NODE9  1      0.12165 /_   -0.9     1.013     0.208        1-2    0.24331 /_   -0.9    1.1697
   -        2      0.12165 /_  179.1     1.013     0.208
TL_HOUSE_9  1      0.12165 /_   -0.9     1.013     0.208        1-2     0.2433 /_   -0.9    1.1697
   -        2      0.12165 /_  179.1     1.013     0.208
TRIP_NODE10 1      0.12198 /_   -1.0    1.0157     0.208        1-2    0.24395 /_   -1.0    1.1729
   -        2      0.12198 /_  179.0    1.0157     0.208
TL_HOUSE_10 1      0.12197 /_   -1.0    1.0157     0.208        1-2    0.24394 /_   -1.0    1.1728
   -        2      0.12197 /_  179.0    1.0157     0.208
TRIP_NODE11 1      0.12235 /_ -120.5    1.0188     0.208        1-2     0.2447 /_ -120.5    1.1764
   -        2      0.12235 /_   59.5    1.0188     0.208
TL_HOUSE_11 1      0.12235 /_ -120.5    1.0188     0.208        1-2    0.24469 /_ -120.5    1.1764
   -        2      0.12235 /_   59.5    1.0188     0.208
TRIP_NODE12 1      0.12208 /_  119.1    1.0166     0.208        1-2    0.24416 /_  119.1    1.1739
   -        2      0.12208 /_  -60.9    1.0166     0.208
TL_HOUSE_12 1      0.12208 /_  119.1    1.0166     0.208        1-2    0.24415 /_  119.1    1.1738
   -        2      0.12208 /_  -60.9    1.0166     0.208
TRIP_NODE13 1      0.12186 /_   -0.8    1.0148     0.208        1-2    0.24373 /_   -0.8    1.1718
   -        2      0.12186 /_  179.2    1.0148     0.208
TL_HOUSE_13 1      0.12186 /_   -0.8    1.0147     0.208        1-2    0.24372 /_   -0.8    1.1717
   -        2      0.12186 /_  179.2    1.0147     0.208
TRIP_NODE14 1      0.12214 /_ -120.4    1.0171     0.208        1-2    0.24428 /_ -120.4    1.1744
   -        2      0.12214 /_   59.6    1.0171     0.208
TL_HOUSE_14 1      0.12214 /_ -120.4    1.0171     0.208        1-2    0.24427 /_ -120.4    1.1744
   -        2      0.12214 /_   59.6    1.0171     0.208
TRIP_NODE15 1      0.12188 /_  119.1    1.0149     0.208        1-2    0.24375 /_  119.1    1.1719
   -        2      0.12188 /_  -60.9    1.0149     0.208
TL_HOUSE_15 1      0.12187 /_  119.1    1.0148     0.208        1-2    0.24374 /_  119.1    1.1718
   -        2      0.12187 /_  -60.9    1.0148     0.208
TL_HOUSE_16 1       0.1217 /_  119.1    1.0134     0.208        1-2     0.2434 /_  119.1    1.1702
   -        2       0.1217 /_  -60.9    1.0134     0.208
TL_HOUSE_17 1      0.12056 /_   -0.6    1.0039     0.208        1-2    0.24111 /_   -0.6    1.1592
   -        2      0.12056 /_  179.4    1.0039     0.208
TL_HOUSE_18 1      0.12056 /_ -120.5     1.004     0.208        1-2    0.24113 /_ -120.5    1.1593
   -        2      0.12056 /_   59.5     1.004     0.208
TL_HOUSE_19 1       0.1205 /_  119.3    1.0034     0.208        1-2      0.241 /_  119.3    1.1586
   -        2       0.1205 /_  -60.7    1.0034     0.208
TL_HOUSE_20 1      0.12065 /_ -120.4    1.0047     0.208        1-2    0.24131 /_ -120.4    1.1601
   -        2      0.12065 /_   59.6    1.0047     0.208
TL_HOUSE_21 1      0.12064 /_  119.3    1.0046     0.208        1-2    0.24128 /_  119.3      1.16
   -        2      0.12064 /_  -60.7    1.0046     0.208
TL_HOUSE_22 1      0.12061 /_ -120.4    1.0044     0.208        1-2    0.24123 /_ -120.4    1.1598
   -        2      0.12061 /_   59.6    1.0044     0.208
TL_HOUSE_23 1      0.12061 /_  119.3    1.0044     0.208        1-2    0.24123 /_  119.3    1.1598
   -        2      0.12061 /_  -60.7    1.0044     0.208
TL_HOUSE_24 1      0.12165 /_   -0.9     1.013     0.208        1-2     0.2433 /_   -0.9    1.1697
   -        2      0.12165 /_  179.1     1.013     0.208
TL_HOUSE_25 1      0.12197 /_   -1.0    1.0157     0.208        1-2    0.24394 /_   -1.0    1.1728
   -        2      0.12197 /_  179.0    1.0157     0.208
TL_HOUSE_26 1      0.12235 /_ -120.5    1.0188     0.208        1-2    0.24469 /_ -120.5    1.1764
   -        2      0.12235 /_   59.5    1.0188     0.208
TL_HOUSE_27 1      0.12208 /_  119.1    1.0166     0.208        1-2    0.24415 /_  119.1    1.1738
   -        2      0.12208 /_  -60.9    1.0166     0.208
TL_HOUSE_28 1      0.12186 /_   -0.8    1.0147     0.208        1-2    0.24372 /_   -0.8    1.1717
   -        2      0.12186 /_  179.2    1.0147     0.208
TL_HOUSE_29 1      0.12214 /_ -120.4    1.0171     0.208        1-2    0.24427 /_ -120.4    1.1744
   -        2      0.12214 /_   59.6    1.0171     0.208
TL_HOUSE_30 1      0.12187 /_  119.1    1.0148     0.208        1-2    0.24374 /_  119.1    1.1718
   -        2      0.12187 /_  -60.9    1.0148     0.208
TL_HOUSE_31 1       0.1217 /_  119.1    1.0134     0.208        1-2     0.2434 /_  119.1    1.1702
   -        2       0.1217 /_  -60.9    1.0134     0.208
TL_HOUSE_32 1      0.12056 /_   -0.6    1.0039     0.208        1-2    0.24111 /_   -0.6    1.1592
   -        2      0.12056 /_  179.4    1.0039     0.208
TL_HOUSE_33 1      0.12056 /_ -120.5     1.004     0.208        1-2    0.24113 /_ -120.5    1.1593
   -        2      0.12056 /_   59.5     1.004     0.208
TL_HOUSE_34 1       0.1205 /_  119.3    1.0034     0.208        1-2      0.241 /_  119.3    1.1586
   -        2       0.1205 /_  -60.7    1.0034     0.208
TL_HOUSE_35 1      0.12065 /_ -120.4    1.0047     0.208        1-2    0.24131 /_ -120.4    1.1601
   -        2      0.12065 /_   59.6    1.0047     0.208
TL_HOUSE_36 1      0.12064 /_  119.3    1.0046     0.208        1-2    0.24128 /_  119.3      1.16
   -        2      0.12064 /_  -60.7    1.0046     0.208
TL_HOUSE_37 1      0.12061 /_ -120.4    1.0044     0.208        1-2    0.24123 /_ -120.4    1.1598
   -        2      0.12061 /_   59.6    1.0044     0.208
TL_HOUSE_38 1      0.12061 /_  119.3    1.0044     0.208        1-2    0.24123 /_  119.3    1.1598
   -        2      0.12061 /_  -60.7    1.0044     0.208
TL_HOUSE_39 1      0.12165 /_   -0.9     1.013     0.208        1-2     0.2433 /_   -0.9    1.1697
   -        2      0.12165 /_  179.1     1.013     0.208
TL_HOUSE_40 1      0.12197 /_   -1.0    1.0157     0.208        1-2    0.24394 /_   -1.0    1.1728
   -        2      0.12197 /_  179.0    1.0157     0.208
NODE_634 .. 1      0.27893 /_   -0.5    1.0065     0.480        1-2    0.48279 /_   29.6    1.0058
   -        2      0.27894 /_ -120.3    1.0066     0.480        2-3    0.48359 /_  -90.5    1.0075
   -        3      0.27879 /_  119.4     1.006     0.480        3-1    0.48275 /_  149.5    1.0057
